dataConverter/IEEE_39_Power_elem_MVA.txt

CIRCUIT ELEMENT POWER FLOW

(Power Flow into element from indicated Bus)

Power Delivery Elements

  Bus Phase     MW     +j   Mvar         MVA         PF

ELEMENT = "Vsource.SOURCE"
B31      1       -20.3 +j    331.2      331.8      -0.0612
B31      2       -20.3 +j    331.2      331.8      -0.0612
B31      3       -20.3 +j    331.2      331.8      -0.0612
   TERMINAL TOTAL   -60.9 +j    993.6      995.5      -0.0612
B31      0         0.0 +j      0.0        0.0       1.0000
B31      0         0.0 +j      0.0        0.0       1.0000
B31      0         0.0 +j      0.0        0.0       1.0000
   TERMINAL TOTAL     0.0 +j      0.0        0.0       1.0000

ELEMENT = "Line.2-1"
B2       1        -0.2 +j    -62.7       62.7       0.0032
B2       2        -0.2 +j    -62.7       62.7       0.0032
B2       3        -0.2 +j    -62.7       62.7       0.0032
   TERMINAL TOTAL    -0.6 +j   -188.0      188.0       0.0032
B1       1         0.3 +j     11.6       11.6       0.0231
B1       2         0.3 +j     11.6       11.6       0.0231
B1       3         0.3 +j     11.6       11.6       0.0231
   TERMINAL TOTAL     0.8 +j     34.7       34.7       0.0231

ELEMENT = "Line.39-1"
B39      1         0.3 +j    -44.9       44.9      -0.0060
B39      2         0.3 +j    -44.9       44.9      -0.0060
B39      3         0.3 +j    -44.9       44.9      -0.0060
   TERMINAL TOTAL     0.8 +j   -134.6      134.6      -0.0060
B1       1        -0.3 +j    -11.6       11.6       0.0231
B1       2        -0.3 +j    -11.6       11.6       0.0231
B1       3        -0.3 +j    -11.6       11.6       0.0231
   TERMINAL TOTAL    -0.8 +j    -34.7       34.7       0.0231

ELEMENT = "Line.3-2"
B3       1        -2.5 +j   -103.1      103.2       0.0246
B3       2        -2.5 +j   -103.1      103.2       0.0246
B3       3        -2.5 +j   -103.1      103.2       0.0246
   TERMINAL TOTAL    -7.6 +j   -309.4      309.5       0.0246
B2       1         2.7 +j     86.7       86.8       0.0312
B2       2         2.7 +j     86.7       86.8       0.0312
B2       3         2.7 +j     86.7       86.8       0.0312
   TERMINAL TOTAL     8.1 +j    260.1      260.3       0.0312

ELEMENT = "Line.25-2"
B25      1         1.9 +j     47.0       47.0       0.0411
B25      2         1.9 +j     47.0       47.0       0.0411
B25      3         1.9 +j     47.0       47.0       0.0411
   TERMINAL TOTAL     5.8 +j    141.0      141.1       0.0411
B2       1        -1.7 +j    -57.3       57.4       0.0291
B2       2        -1.7 +j    -57.3       57.4       0.0291
B2       3        -1.7 +j    -57.3       57.4       0.0291
   TERMINAL TOTAL    -5.0 +j   -172.0      172.1       0.0291

ELEMENT = "Line.4-3"
B4       1         5.4 +j   -152.4      152.5      -0.0356
B4       2         5.4 +j   -152.4      152.5      -0.0356
B4       3         5.4 +j   -152.4      152.5      -0.0356
   TERMINAL TOTAL    16.3 +j   -457.2      457.4      -0.0356
B3       1        -5.0 +j    144.7      144.8      -0.0345
B3       2        -5.0 +j    144.7      144.8      -0.0345
B3       3        -5.0 +j    144.7      144.8      -0.0345
   TERMINAL TOTAL   -15.0 +j    434.2      434.4      -0.0345

ELEMENT = "Line.18-3"
B18      1        -5.7 +j     26.8       27.4      -0.2063
B18      2        -5.7 +j     26.8       27.4      -0.2063
B18      3        -5.7 +j     26.8       27.4      -0.2063
   TERMINAL TOTAL   -17.0 +j     80.5       82.2      -0.2063
B3       1         5.7 +j    -41.6       42.0      -0.1351
B3       2         5.7 +j    -41.6       42.0      -0.1351
B3       3         5.7 +j    -41.6       42.0      -0.1351
   TERMINAL TOTAL    17.0 +j   -124.9      126.0      -0.1351

ELEMENT = "Line.5-4"
B5       1         8.9 +j   -161.6      161.9      -0.0552
B5       2         8.9 +j   -161.6      161.9      -0.0552
B5       3         8.9 +j   -161.6      161.9      -0.0552
   TERMINAL TOTAL    26.8 +j   -484.9      485.7      -0.0552
B4       1        -8.6 +j    158.8      159.0      -0.0541
B4       2        -8.6 +j    158.8      159.0      -0.0541
B4       3        -8.6 +j    158.8      159.0      -0.0541
   TERMINAL TOTAL   -25.8 +j    476.3      477.0      -0.0541

ELEMENT = "Line.14-4"
B14      1        -0.5 +j     -1.4        1.5       0.3596
B14      2        -0.5 +j     -1.4        1.5       0.3596
B14      3        -0.5 +j     -1.4        1.5       0.3596
   TERMINAL TOTAL    -1.6 +j     -4.3        4.6       0.3596
B4       1         0.5 +j     -7.4        7.4      -0.0742
B4       2         0.5 +j     -7.4        7.4      -0.0742
B4       3         0.5 +j     -7.4        7.4      -0.0742
   TERMINAL TOTAL     1.6 +j    -22.1       22.1      -0.0742

ELEMENT = "Line.6-5"
B6       1        12.2 +j   -225.8      226.2      -0.0540
B6       2        12.2 +j   -225.8      226.2      -0.0540
B6       3        12.2 +j   -225.8      226.2      -0.0540
   TERMINAL TOTAL    36.6 +j   -677.5      678.5      -0.0540
B5       1       -12.0 +j    225.6      225.9      -0.0533
B5       2       -12.0 +j    225.6      225.9      -0.0533
B5       3       -12.0 +j    225.6      225.9      -0.0533
   TERMINAL TOTAL   -36.1 +j    676.7      677.6      -0.0533

ELEMENT = "Line.8-5"
B8       1        -3.1 +j     55.7       55.8      -0.0547
B8       2        -3.1 +j     55.7       55.8      -0.0547
B8       3        -3.1 +j     55.7       55.8      -0.0547
   TERMINAL TOTAL    -9.2 +j    167.1      167.4      -0.0547
B5       1         3.1 +j    -63.9       64.0      -0.0484
B5       2         3.1 +j    -63.9       64.0      -0.0484
B5       3         3.1 +j    -63.9       64.0      -0.0484
   TERMINAL TOTAL     9.3 +j   -191.7      191.9      -0.0484

ELEMENT = "Line.7-6"
B7       1        -5.3 +j     89.8       90.0      -0.0590
B7       2        -5.3 +j     89.8       90.0      -0.0590
B7       3        -5.3 +j     89.8       90.0      -0.0590
   TERMINAL TOTAL   -15.9 +j    269.5      270.0      -0.0590
B6       1         5.4 +j    -95.2       95.3      -0.0566
B6       2         5.4 +j    -95.2       95.3      -0.0566
B6       3         5.4 +j    -95.2       95.3      -0.0566
   TERMINAL TOTAL    16.2 +j   -285.5      286.0      -0.0566

ELEMENT = "Line.11-6"
B11      1        -2.6 +j     88.8       88.8      -0.0290
B11      2        -2.6 +j     88.8       88.8      -0.0290
B11      3        -2.6 +j     88.8       88.8      -0.0290
   TERMINAL TOTAL    -7.7 +j    266.4      266.5      -0.0290
B6       1         2.7 +j    -95.8       95.8      -0.0280
B6       2         2.7 +j    -95.8       95.8      -0.0280
B6       3         2.7 +j    -95.8       95.8      -0.0280
   TERMINAL TOTAL     8.0 +j   -287.4      287.5      -0.0280

ELEMENT = "Line.8-7"
B8       1        -4.1 +j     86.1       86.2      -0.0476
B8       2        -4.1 +j     86.1       86.2      -0.0476
B8       3        -4.1 +j     86.1       86.2      -0.0476
   TERMINAL TOTAL   -12.3 +j    258.4      258.7      -0.0476
B7       1         4.2 +j    -90.3       90.3      -0.0460
B7       2         4.2 +j    -90.3       90.3      -0.0460
B7       3         4.2 +j    -90.3       90.3      -0.0460
   TERMINAL TOTAL    12.5 +j   -270.8      271.0      -0.0460

ELEMENT = "Line.9-8"
B9       1        -3.9 +j    128.1      128.1      -0.0303
B9       2        -3.9 +j    128.1      128.1      -0.0303
B9       3        -3.9 +j    128.1      128.1      -0.0303
   TERMINAL TOTAL   -11.6 +j    384.2      384.3      -0.0303
B8       1         4.5 +j   -142.7      142.8      -0.0317
B8       2         4.5 +j   -142.7      142.8      -0.0317
B8       3         4.5 +j   -142.7      142.8      -0.0317
   TERMINAL TOTAL    13.6 +j   -428.2      428.4      -0.0317

ELEMENT = "Line.39-9"
B39      1        -3.8 +j     43.3       43.5      -0.0869
B39      2        -3.8 +j     43.3       43.5      -0.0869
B39      3        -3.8 +j     43.3       43.5      -0.0869
   TERMINAL TOTAL   -11.3 +j    130.0      130.5      -0.0869
B9       1         3.9 +j   -128.1      128.1      -0.0303
B9       2         3.9 +j   -128.1      128.1      -0.0303
B9       3         3.9 +j   -128.1      128.1      -0.0303
   TERMINAL TOTAL    11.6 +j   -384.2      384.3      -0.0303

ELEMENT = "Line.11-10"
B11      1         1.5 +j    -79.9       79.9      -0.0182
B11      2         1.5 +j    -79.9       79.9      -0.0182
B11      3         1.5 +j    -79.9       79.9      -0.0182
   TERMINAL TOTAL     4.4 +j   -239.8      239.8      -0.0182
B10      1        -1.4 +j     76.0       76.0      -0.0187
B10      2        -1.4 +j     76.0       76.0      -0.0187
B10      3        -1.4 +j     76.0       76.0      -0.0187
   TERMINAL TOTAL    -4.3 +j    227.9      228.0      -0.0187

ELEMENT = "Line.13-10"
B13      1        -3.5 +j    105.8      105.8      -0.0331
B13      2        -3.5 +j    105.8      105.8      -0.0331
B13      3        -3.5 +j    105.8      105.8      -0.0331
   TERMINAL TOTAL   -10.5 +j    317.4      317.5      -0.0331
B10      1         3.6 +j   -109.4      109.5      -0.0327
B10      2         3.6 +j   -109.4      109.5      -0.0327
B10      3         3.6 +j   -109.4      109.5      -0.0327
   TERMINAL TOTAL    10.8 +j   -328.2      328.4      -0.0327

ELEMENT = "Line.14-13"
B14      1        -4.4 +j    106.5      106.5      -0.0414
B14      2        -4.4 +j    106.5      106.5      -0.0414
B14      3        -4.4 +j    106.5      106.5      -0.0414
   TERMINAL TOTAL   -13.2 +j    319.4      319.6      -0.0414
B13      1         4.6 +j   -115.2      115.3      -0.0398
B13      2         4.6 +j   -115.2      115.3      -0.0398
B13      3         4.6 +j   -115.2      115.3      -0.0398
   TERMINAL TOTAL    13.8 +j   -345.7      345.9      -0.0398

ELEMENT = "Line.15-14"
B15      1        -4.7 +j     84.0       84.1      -0.0559
B15      2        -4.7 +j     84.0       84.1      -0.0559
B15      3        -4.7 +j     84.0       84.1      -0.0559
   TERMINAL TOTAL   -14.1 +j    252.0      252.4      -0.0559
B14      1         5.0 +j   -105.0      105.2      -0.0471
B14      2         5.0 +j   -105.0      105.2      -0.0471
B14      3         5.0 +j   -105.0      105.2      -0.0471
   TERMINAL TOTAL    14.9 +j   -315.1      315.5      -0.0471

ELEMENT = "Line.16-15"
B16      1        -2.8 +j     74.0       74.1      -0.0383
B16      2        -2.8 +j     74.0       74.1      -0.0383
B16      3        -2.8 +j     74.0       74.1      -0.0383
   TERMINAL TOTAL    -8.5 +j    222.1      222.3      -0.0383
B15      1         2.9 +j    -84.9       84.9      -0.0344
B15      2         2.9 +j    -84.9       84.9      -0.0344
B15      3         2.9 +j    -84.9       84.9      -0.0344
   TERMINAL TOTAL     8.8 +j   -254.6      254.7      -0.0344

ELEMENT = "Line.17-16"
B17      1        -0.6 +j    104.0      104.0      -0.0054
B17      2        -0.6 +j    104.0      104.0      -0.0054
B17      3        -0.6 +j    104.0      104.0      -0.0054
   TERMINAL TOTAL    -1.7 +j    312.1      312.1      -0.0054
B16      1         0.7 +j   -112.0      112.0      -0.0061
B16      2         0.7 +j   -112.0      112.0      -0.0061
B16      3         0.7 +j   -112.0      112.0      -0.0061
   TERMINAL TOTAL     2.0 +j   -335.9      335.9      -0.0061

ELEMENT = "Line.19-16"
B19      1         0.5 +j    -67.4       67.4      -0.0075
B19      2         0.5 +j    -67.4       67.4      -0.0075
B19      3         0.5 +j    -67.4       67.4      -0.0075
   TERMINAL TOTAL     1.5 +j   -202.2      202.2      -0.0075
B16      1        -0.4 +j     47.7       47.7      -0.0090
B16      2        -0.4 +j     47.7       47.7      -0.0090
B16      3        -0.4 +j     47.7       47.7      -0.0090
   TERMINAL TOTAL    -1.3 +j    143.0      143.0      -0.0090

ELEMENT = "Line.21-16"
B21      1         0.2 +j    -13.4       13.4      -0.0183
B21      2         0.2 +j    -13.4       13.4      -0.0183
B21      3         0.2 +j    -13.4       13.4      -0.0183
   TERMINAL TOTAL     0.7 +j    -40.3       40.3      -0.0183
B16      1        -0.2 +j     -4.2        4.2       0.0588
B16      2        -0.2 +j     -4.2        4.2       0.0588
B16      3        -0.2 +j     -4.2        4.2       0.0588
   TERMINAL TOTAL    -0.7 +j    -12.5       12.5       0.0588

ELEMENT = "Line.24-16"
B24      1        -0.9 +j      1.1        1.4      -0.6695
B24      2        -0.9 +j      1.1        1.4      -0.6695
B24      3        -0.9 +j      1.1        1.4      -0.6695
   TERMINAL TOTAL    -2.8 +j      3.2        4.3      -0.6695
B16      1         0.9 +j     -5.8        5.8      -0.1627
B16      2         0.9 +j     -5.8        5.8      -0.1627
B16      3         0.9 +j     -5.8        5.8      -0.1627
   TERMINAL TOTAL     2.8 +j    -17.3       17.5      -0.1627

ELEMENT = "Line.18-17"
B18      1         4.7 +j    -27.0       27.4      -0.1726
B18      2         4.7 +j    -27.0       27.4      -0.1726
B18      3         4.7 +j    -27.0       27.4      -0.1726
   TERMINAL TOTAL    14.2 +j    -81.0       82.2      -0.1726
B17      1        -4.7 +j     17.7       18.3      -0.2579
B17      2        -4.7 +j     17.7       18.3      -0.2579
B17      3        -4.7 +j     17.7       18.3      -0.2579
   TERMINAL TOTAL   -14.2 +j     53.1       55.0      -0.2579

ELEMENT = "Line.27-17"
B27      1        -5.1 +j    101.2      101.4      -0.0500
B27      2        -5.1 +j    101.2      101.4      -0.0500
B27      3        -5.1 +j    101.2      101.4      -0.0500
   TERMINAL TOTAL   -15.2 +j    303.7      304.1      -0.0500
B17      1         5.3 +j   -121.7      121.9      -0.0434
B17      2         5.3 +j   -121.7      121.9      -0.0434
B17      3         5.3 +j   -121.7      121.9      -0.0434
   TERMINAL TOTAL    15.9 +j   -365.2      365.6      -0.0434

ELEMENT = "Line.22-21"
B22      1         1.8 +j    -30.3       30.4      -0.0597
B22      2         1.8 +j    -30.3       30.4      -0.0597
B22      3         1.8 +j    -30.3       30.4      -0.0597
   TERMINAL TOTAL     5.4 +j    -90.9       91.1      -0.0597
B21      1        -1.8 +j     12.8       12.9      -0.1402
B21      2        -1.8 +j     12.8       12.9      -0.1402
B21      3        -1.8 +j     12.8       12.9      -0.1402
   TERMINAL TOTAL    -5.4 +j     38.3       38.7      -0.1402

ELEMENT = "Line.23-22"
B23      1        -0.4 +j     -9.7        9.7       0.0363
B23      2        -0.4 +j     -9.7        9.7       0.0363
B23      3        -0.4 +j     -9.7        9.7       0.0363
   TERMINAL TOTAL    -1.1 +j    -29.1       29.1       0.0363
B22      1         0.4 +j     -2.9        3.0      -0.1193
B22      2         0.4 +j     -2.9        3.0      -0.1193
B22      3         0.4 +j     -2.9        3.0      -0.1193
   TERMINAL TOTAL     1.1 +j     -8.8        8.9      -0.1193

ELEMENT = "Line.24-23"
B24      1        -0.8 +j     -0.5        1.0       0.8406
B24      2        -0.8 +j     -0.5        1.0       0.8406
B24      3        -0.8 +j     -0.5        1.0       0.8406
   TERMINAL TOTAL    -2.4 +j     -1.6        2.9       0.8406
B23      1         0.8 +j    -24.2       24.2      -0.0338
B23      2         0.8 +j    -24.2       24.2      -0.0338
B23      3         0.8 +j    -24.2       24.2      -0.0338
   TERMINAL TOTAL     2.5 +j    -72.7       72.7      -0.0338

ELEMENT = "Line.26-25"
B26      1         1.7 +j     43.5       43.5       0.0381
B26      2         1.7 +j     43.5       43.5       0.0381
B26      3         1.7 +j     43.5       43.5       0.0381
   TERMINAL TOTAL     5.0 +j    130.5      130.6       0.0381
B25      1        -1.5 +j    -80.6       80.7       0.0185
B25      2        -1.5 +j    -80.6       80.7       0.0185
B25      3        -1.5 +j    -80.6       80.7       0.0185
   TERMINAL TOTAL    -4.5 +j   -241.9      242.0       0.0185

ELEMENT = "Line.27-26"
B27      1         3.3 +j   -101.7      101.8      -0.0327
B27      2         3.3 +j   -101.7      101.8      -0.0327
B27      3         3.3 +j   -101.7      101.8      -0.0327
   TERMINAL TOTAL    10.0 +j   -305.1      305.3      -0.0327
B26      1        -3.2 +j     85.1       85.2      -0.0372
B26      2        -3.2 +j     85.1       85.2      -0.0372
B26      3        -3.2 +j     85.1       85.2      -0.0372
   TERMINAL TOTAL    -9.5 +j    255.3      255.5      -0.0372

ELEMENT = "Line.28-26"
B28      1        -0.4 +j      3.3        3.3      -0.1279
B28      2        -0.4 +j      3.3        3.3      -0.1279
B28      3        -0.4 +j      3.3        3.3      -0.1279
   TERMINAL TOTAL    -1.3 +j      9.8        9.9      -0.1279
B26      1         0.5 +j    -64.4       64.4      -0.0076
B26      2         0.5 +j    -64.4       64.4      -0.0076
B26      3         0.5 +j    -64.4       64.4      -0.0076
   TERMINAL TOTAL     1.5 +j   -193.3      193.3      -0.0076

ELEMENT = "Line.29-26"
B29      1        -0.0 +j    -16.7       16.7       0.0049
B29      2        -0.0 +j    -16.7       16.7       0.0049
B29      3        -0.0 +j    -16.7       16.7       0.0049
   TERMINAL TOTAL    -0.2 +j    -50.2       50.2       0.0049
B26      1         0.1 +j    -64.3       64.3      -0.0019
B26      2         0.1 +j    -64.3       64.3      -0.0019
B26      3         0.1 +j    -64.3       64.3      -0.0019
   TERMINAL TOTAL     0.4 +j   -192.9      192.9      -0.0019

ELEMENT = "Line.29-28"
B29      1         1.0 +j    -16.7       16.7      -0.0573
B29      2         1.0 +j    -16.7       16.7      -0.0573
B29      3         1.0 +j    -16.7       16.7      -0.0573
   TERMINAL TOTAL     2.9 +j    -50.0       50.1      -0.0573
B28      1        -1.0 +j     -3.5        3.6       0.2662
B28      2        -1.0 +j     -3.5        3.6       0.2662
B28      3        -1.0 +j     -3.5        3.6       0.2662
   TERMINAL TOTAL    -2.9 +j    -10.4       10.8       0.2662

ELEMENT = "Transformer.12-11"
B12      1        -1.1 +j      8.9        9.0      -0.1245
B12      2        -1.1 +j      8.9        9.0      -0.1245
B12      3        -1.1 +j      8.9        9.0      -0.1245
B12      0         0.0 +j      0.0        0.0       1.0000
   TERMINAL TOTAL    -3.4 +j     26.8       27.0      -0.1245
B11      1         1.1 +j     -8.9        8.9      -0.1253
B11      2         1.1 +j     -8.9        8.9      -0.1253
B11      3         1.1 +j     -8.9        8.9      -0.1253
B11      0         0.0 +j      0.0        0.0       1.0000
   TERMINAL TOTAL     3.4 +j    -26.6       26.8      -0.1253

ELEMENT = "Transformer.12-13"
B12      1         1.1 +j     -9.4        9.4      -0.1142
B12      2         1.1 +j     -9.4        9.4      -0.1142
B12      3         1.1 +j     -9.4        9.4      -0.1142
B12      0         0.0 +j      0.0        0.0       1.0000
   TERMINAL TOTAL     3.2 +j    -28.1       28.3      -0.1142
B13      1        -1.1 +j      9.4        9.5      -0.1134
B13      2        -1.1 +j      9.4        9.5      -0.1134
B13      3        -1.1 +j      9.4        9.5      -0.1134
B13      0         0.0 +j      0.0        0.0       1.0000
   TERMINAL TOTAL    -3.2 +j     28.3       28.5      -0.1134

ELEMENT = "Transformer.6-31"
B6       1       -20.3 +j    416.8      417.3      -0.0486
B6       2       -20.3 +j    416.8      417.3      -0.0486
B6       3       -20.3 +j    416.8      417.3      -0.0486
B6       0         0.0 +j      0.0        0.0       1.0000
   TERMINAL TOTAL   -60.9 +j   1250.5     1251.9      -0.0486
B31      1        20.3 +j   -331.2      331.8      -0.0611
B31      2        20.3 +j   -331.2      331.8      -0.0611
B31      3        20.3 +j   -331.2      331.8      -0.0611
B31      0         0.0 +j      0.0        0.0       1.0000
   TERMINAL TOTAL    60.9 +j   -993.6      995.5      -0.0611

ELEMENT = "Transformer.10-32"
B10      1        -2.2 +j     33.4       33.5      -0.0647
B10      2        -2.2 +j     33.4       33.5      -0.0647
B10      3        -2.2 +j     33.4       33.5      -0.0647
B10      0         0.0 +j      0.0        0.0       1.0000
   TERMINAL TOTAL    -6.5 +j    100.3      100.5      -0.0647
B32      1         2.2 +j    -33.0       33.1      -0.0655
B32      2         2.2 +j    -33.0       33.1      -0.0655
B32      3         2.2 +j    -33.0       33.1      -0.0655
B32      0         0.0 +j      0.0        0.0       1.0000
   TERMINAL TOTAL     6.5 +j    -99.0       99.2      -0.0655

ELEMENT = "Transformer.19-33"
B19      1        -2.1 +j     33.3       33.3      -0.0632
B19      2        -2.1 +j     33.3       33.3      -0.0632
B19      3        -2.1 +j     33.3       33.3      -0.0632
B19      0         0.0 +j      0.0        0.0       1.0000
   TERMINAL TOTAL    -6.3 +j     99.8      100.0      -0.0632
B33      1         2.1 +j    -33.0       33.1      -0.0637
B33      2         2.1 +j    -33.0       33.1      -0.0637
B33      3         2.1 +j    -33.0       33.1      -0.0637
B33      0         0.0 +j      0.0        0.0       1.0000
   TERMINAL TOTAL     6.3 +j    -99.0       99.2      -0.0637

ELEMENT = "Transformer.20-34"
B20      1        -1.7 +j     33.3       33.4      -0.0507
B20      2        -1.7 +j     33.3       33.4      -0.0507
B20      3        -1.7 +j     33.3       33.4      -0.0507
B20      0         0.0 +j      0.0        0.0       1.0000
   TERMINAL TOTAL    -5.1 +j    100.0      100.2      -0.0507
B34      1         1.7 +j    -33.0       33.0      -0.0512
B34      2         1.7 +j    -33.0       33.0      -0.0512
B34      3         1.7 +j    -33.0       33.0      -0.0512
B34      0         0.0 +j      0.0        0.0       1.0000
   TERMINAL TOTAL     5.1 +j    -99.0       99.1      -0.0512

ELEMENT = "Transformer.22-35"
B22      1        -2.2 +j     33.2       33.3      -0.0650
B22      2        -2.2 +j     33.2       33.3      -0.0650
B22      3        -2.2 +j     33.2       33.3      -0.0650
B22      0         0.0 +j      0.0        0.0       1.0000
   TERMINAL TOTAL    -6.5 +j     99.7       99.9      -0.0650
B35      1         2.2 +j    -33.0       33.1      -0.0655
B35      2         2.2 +j    -33.0       33.1      -0.0655
B35      3         2.2 +j    -33.0       33.1      -0.0655
B35      0         0.0 +j      0.0        0.0       1.0000
   TERMINAL TOTAL     6.5 +j    -99.0       99.2      -0.0655

ELEMENT = "Transformer.23-36"
B23      1        -1.9 +j     33.4       33.5      -0.0557
B23      2        -1.9 +j     33.4       33.5      -0.0557
B23      3        -1.9 +j     33.4       33.5      -0.0557
B23      0         0.0 +j      0.0        0.0       1.0000
   TERMINAL TOTAL    -5.6 +j    100.3      100.5      -0.0557
B36      1         1.9 +j    -33.0       33.1      -0.0565
B36      2         1.9 +j    -33.0       33.1      -0.0565
B36      3         1.9 +j    -33.0       33.1      -0.0565
B36      0         0.0 +j      0.0        0.0       1.0000
   TERMINAL TOTAL     5.6 +j    -99.0       99.2      -0.0565

ELEMENT = "Transformer.25-37"
B25      1        -1.8 +j     33.4       33.4      -0.0539
B25      2        -1.8 +j     33.4       33.4      -0.0539
B25      3        -1.8 +j     33.4       33.4      -0.0539
B25      0         0.0 +j      0.0        0.0       1.0000
   TERMINAL TOTAL    -5.4 +j    100.1      100.2      -0.0539
B37      1         1.8 +j    -33.0       33.0      -0.0545
B37      2         1.8 +j    -33.0       33.0      -0.0545
B37      3         1.8 +j    -33.0       33.0      -0.0545
B37      0         0.0 +j      0.0        0.0       1.0000
   TERMINAL TOTAL     5.4 +j    -99.0       99.1      -0.0545

ELEMENT = "Transformer.2-30"
B2       1        -0.8 +j     33.3       33.3      -0.0250
B2       2        -0.8 +j     33.3       33.3      -0.0250
B2       3        -0.8 +j     33.3       33.3      -0.0250
B2       0         0.0 +j      0.0        0.0       1.0000
   TERMINAL TOTAL    -2.5 +j     99.9       99.9      -0.0250
B30      1         0.8 +j    -33.0       33.0      -0.0252
B30      2         0.8 +j    -33.0       33.0      -0.0252
B30      3         0.8 +j    -33.0       33.0      -0.0252
B30      0         0.0 +j      0.0        0.0       1.0000
   TERMINAL TOTAL     2.5 +j    -99.0       99.0      -0.0252

ELEMENT = "Transformer.29-38"
B29      1        -2.8 +j     33.2       33.3      -0.0830
B29      2        -2.8 +j     33.2       33.3      -0.0830
B29      3        -2.8 +j     33.2       33.3      -0.0830
B29      0         0.0 +j      0.0        0.0       1.0000
   TERMINAL TOTAL    -8.3 +j     99.7      100.0      -0.0830
B38      1         2.8 +j    -33.0       33.1      -0.0835
B38      2         2.8 +j    -33.0       33.1      -0.0835
B38      3         2.8 +j    -33.0       33.1      -0.0835
B38      0         0.0 +j      0.0        0.0       1.0000
   TERMINAL TOTAL     8.3 +j    -99.0       99.3      -0.0835

ELEMENT = "Transformer.19-20"
B19      1         1.6 +j     34.1       34.2       0.0469
B19      2         1.6 +j     34.1       34.2       0.0469
B19      3         1.6 +j     34.1       34.2       0.0469
B19      0         0.0 +j      0.0        0.0       1.0000
   TERMINAL TOTAL     4.8 +j    102.3      102.5       0.0469
B20      1        -1.6 +j    -33.8       33.9       0.0472
B20      2        -1.6 +j    -33.8       33.9       0.0472
B20      3        -1.6 +j    -33.8       33.9       0.0472
B20      0         0.0 +j      0.0        0.0       1.0000
   TERMINAL TOTAL    -4.8 +j   -101.5      101.7       0.0472

= = = = = = = = = = = = = = = = = = =  = = = = = = = = = = =  = =

Power Conversion Elements

  Bus Phase     MW   +j  Mvar         MVA         PF

ELEMENT = "Load.B3"
B3       1       1.9 +j    0.0        1.9       1.0000
B3       2       1.9 +j    0.0        1.9       1.0000
B3       3       1.9 +j    0.0        1.9       1.0000
B3       0       0.0 +j    0.0        0.0       1.0000
   TERMINAL TOTAL   5.6 +j    0.0        5.6       1.0000

ELEMENT = "Load.B4"
B4       1       2.6 +j    1.0        2.8       0.9385
B4       2       2.6 +j    1.0        2.8       0.9385
B4       3       2.6 +j    1.0        2.8       0.9385
B4       0       0.0 +j    0.0        0.0       1.0000
   TERMINAL TOTAL   7.9 +j    2.9        8.4       0.9385

ELEMENT = "Load.B7"
B7       1       1.2 +j    0.4        1.2       0.9411
B7       2       1.2 +j    0.4        1.2       0.9411
B7       3       1.2 +j    0.4        1.2       0.9411
B7       0       0.0 +j    0.0        0.0       1.0000
   TERMINAL TOTAL   3.5 +j    1.2        3.7       0.9411

ELEMENT = "Load.B8"
B8       1       2.6 +j    0.9        2.8       0.9476
B8       2       2.6 +j    0.9        2.8       0.9476
B8       3       2.6 +j    0.9        2.8       0.9476
B8       0       0.0 +j    0.0        0.0       1.0000
   TERMINAL TOTAL   7.9 +j    2.7        8.3       0.9476

ELEMENT = "Load.B12"
B12      1       0.0 +j    0.4        0.4       0.0961
B12      2       0.0 +j    0.4        0.4       0.0961
B12      3       0.0 +j    0.4        0.4       0.0961
B12      0       0.0 +j    0.0        0.0       1.0000
   TERMINAL TOTAL   0.1 +j    1.3        1.3       0.0961

ELEMENT = "Load.B15"
B15      1       1.8 +j    0.9        2.0       0.9022
B15      2       1.8 +j    0.9        2.0       0.9022
B15      3       1.8 +j    0.9        2.0       0.9022
B15      0       0.0 +j    0.0        0.0       1.0000
   TERMINAL TOTAL   5.4 +j    2.6        6.0       0.9022

ELEMENT = "Load.B16"
B16      1       1.9 +j    0.2        1.9       0.9952
B16      2       1.9 +j    0.2        1.9       0.9952
B16      3       1.9 +j    0.2        1.9       0.9952
B16      0       0.0 +j    0.0        0.0       1.0000
   TERMINAL TOTAL   5.6 +j    0.6        5.7       0.9952

ELEMENT = "Load.B18"
B18      1       0.9 +j    0.2        0.9       0.9824
B18      2       0.9 +j    0.2        0.9       0.9824
B18      3       0.9 +j    0.2        0.9       0.9824
B18      0       0.0 +j    0.0        0.0       1.0000
   TERMINAL TOTAL   2.8 +j    0.5        2.8       0.9824

ELEMENT = "Load.B20"
B20      1       3.3 +j    0.5        3.3       0.9887
B20      2       3.3 +j    0.5        3.3       0.9887
B20      3       3.3 +j    0.5        3.3       0.9887
B20      0       0.0 +j    0.0        0.0       1.0000
   TERMINAL TOTAL   9.9 +j    1.5       10.0       0.9887

ELEMENT = "Load.B21"
B21      1       1.6 +j    0.7        1.7       0.9221
B21      2       1.6 +j    0.7        1.7       0.9221
B21      3       1.6 +j    0.7        1.7       0.9221
B21      0       0.0 +j    0.0        0.0       1.0000
   TERMINAL TOTAL   4.7 +j    2.0        5.1       0.9221

ELEMENT = "Load.B23"
B23      1       1.4 +j    0.5        1.5       0.9462
B23      2       1.4 +j    0.5        1.5       0.9462
B23      3       1.4 +j    0.5        1.5       0.9462
B23      0       0.0 +j    0.0        0.0       1.0000
   TERMINAL TOTAL   4.2 +j    1.4        4.4       0.9462

ELEMENT = "Load.B24"
B24      1       1.8 +j   -0.5        1.8      -0.9582
B24      2       1.8 +j   -0.5        1.8      -0.9582
B24      3       1.8 +j   -0.5        1.8      -0.9582
B24      0       0.0 +j    0.0        0.0       1.0000
   TERMINAL TOTAL   5.3 +j   -1.6        5.5      -0.9582

ELEMENT = "Load.B25"
B25      1       1.4 +j    0.3        1.4       0.9785
B25      2       1.4 +j    0.3        1.4       0.9785
B25      3       1.4 +j    0.3        1.4       0.9785
B25      0       0.0 +j    0.0        0.0       1.0000
   TERMINAL TOTAL   4.1 +j    0.9        4.2       0.9785

ELEMENT = "Load.B26"
B26      1       0.9 +j    0.1        0.9       0.9926
B26      2       0.9 +j    0.1        0.9       0.9926
B26      3       0.9 +j    0.1        0.9       0.9926
B26      0       0.0 +j    0.0        0.0       1.0000
   TERMINAL TOTAL   2.7 +j    0.3        2.7       0.9926

ELEMENT = "Load.B27"
B27      1       1.7 +j    0.5        1.8       0.9657
B27      2       1.7 +j    0.5        1.8       0.9657
B27      3       1.7 +j    0.5        1.8       0.9657
B27      0       0.0 +j    0.0        0.0       1.0000
   TERMINAL TOTAL   5.2 +j    1.4        5.4       0.9657

ELEMENT = "Load.B28"
B28      1       1.4 +j    0.2        1.4       0.9911
...