dataConverter/IEEE_39_Power_seq_kVA.txt

SYMMETRICAL COMPONENT POWERS BY CIRCUIT ELEMENT (first 3 phases)                                     Excess Power

Element             Term    P1(kW)   Q1(kvar)       P2         Q2      P0      Q0       P_Norm      Q_Norm     P_Emerg    Q_Emerg

"Vsource.SOURCE"     1  -169436.2   -58476.5       -0.0       -0.0    -0.0    -0.0
"Vsource.SOURCE"     2        0.0        0.0        0.0        0.0     0.0     0.0
"Line.2-1"           1    35380.4    28813.5        0.0        0.0     0.0     0.0        0.0        0.0        0.0        0.0
"Line.2-1"           2   -35314.2   -28036.6       -0.0       -0.0    -0.0    -0.0
"Line.39-1"          1   -35295.3   -27564.1       -0.0       -0.0    -0.0    -0.0        0.0        0.0        0.0        0.0
"Line.39-1"          2    35314.2    28036.6        0.0        0.0     0.0     0.0
"Line.3-2"           1  -108855.0   -43279.2       -0.0       -0.0    -0.0    -0.0        0.0        0.0        0.0        0.0
"Line.3-2"           2   109019.3    45188.6        0.0        0.0     0.0     0.0
"Line.25-2"          1    70240.5   -47783.1        0.0       -0.0     0.0    -0.0        0.0        0.0        0.0        0.0
"Line.25-2"          2   -69782.4    48345.9       -0.0        0.0    -0.0     0.0
"Line.4-3"           1   -23394.9   -44887.2       -0.0       -0.0    -0.0    -0.0        0.0        0.0        0.0        0.0
"Line.4-3"           2    23426.2    45399.5        0.0        0.0     0.0     0.0
"Line.18-3"          1    11185.7     2856.5        0.0        0.0     0.0     0.0        0.0        0.0        0.0        0.0
"Line.18-3"          2   -11184.4    -2840.2       -0.0       -0.0    -0.0    -0.0
"Line.5-4"           1    47474.3    -7973.9        0.0       -0.0     0.0    -0.0        0.0        0.0        0.0        0.0
"Line.5-4"           2   -47456.9     8252.6       -0.0        0.0    -0.0     0.0
"Line.14-4"          1    79214.3    19371.8        0.0        0.0     0.0     0.0        0.0        0.0        0.0        0.0
"Line.14-4"          2   -79164.7   -18571.2       -0.0       -0.0    -0.0    -0.0
"Line.6-5"           1   142831.0    26648.6        0.0        0.0     0.0     0.0        0.0        0.0        0.0        0.0
"Line.6-5"           2  -142791.4   -26133.7       -0.0       -0.0    -0.0    -0.0
"Line.8-5"           1   -95240.1   -33028.8       -0.0       -0.0    -0.0    -0.0        0.0        0.0        0.0        0.0
"Line.8-5"           2    95317.1    34107.5        0.0        0.0     0.0     0.0
"Line.7-6"           1  -127441.5   -40512.8       -0.0       -0.0    -0.0    -0.0        0.0        0.0        0.0        0.0
"Line.7-6"           2   127543.0    42069.5        0.0        0.0     0.0     0.0
"Line.11-6"          1   104415.7    20536.5        0.0        0.0     0.0     0.0        0.0        0.0        0.0        0.0
"Line.11-6"          2  -104341.6   -19669.3       -0.0       -0.0    -0.0    -0.0
"Line.8-7"           1   -57281.8   -15157.5       -0.0       -0.0    -0.0    -0.0        0.0        0.0        0.0        0.0
"Line.8-7"           2    57295.1    15310.6        0.0        0.0     0.0     0.0
"Line.9-8"           1     4093.4     4631.5        0.0        0.0     0.0     0.0        0.0        0.0        0.0        0.0
"Line.9-8"           2    -4092.5    -4618.4       -0.0       -0.0    -0.0    -0.0
"Line.39-9"          1     4093.7     4640.5        0.0        0.0     0.0     0.0        0.0        0.0        0.0        0.0
"Line.39-9"          2    -4093.4    -4631.5       -0.0       -0.0    -0.0    -0.0
"Line.11-10"         1  -104927.3   -32784.2       -0.0       -0.0    -0.0    -0.0        0.0        0.0        0.0        0.0
"Line.11-10"         2   104972.4    33269.5        0.0        0.0     0.0     0.0
"Line.13-10"         1   -89170.6   -12390.6       -0.0       -0.0    -0.0    -0.0        0.0        0.0        0.0        0.0
"Line.13-10"         2    89200.8    12715.5        0.0        0.0     0.0     0.0
"Line.14-13"         1   -87056.1     2625.3       -0.0        0.0    -0.0     0.0        0.0        0.0        0.0        0.0
"Line.14-13"         2    87119.8    -1910.3        0.0       -0.0     0.0    -0.0
"Line.15-14"         1    -7832.6    22107.6       -0.0        0.0    -0.0     0.0        0.0        0.0        0.0        0.0
"Line.15-14"         2     7841.8   -21997.1        0.0       -0.0     0.0    -0.0
"Line.16-15"         1    88284.2    69092.4        0.0        0.0     0.0     0.0        0.0        0.0        0.0        0.0
"Line.16-15"         2   -88180.9   -68013.8       -0.0       -0.0    -0.0    -0.0
"Line.17-16"         1   -60697.7   -30405.8       -0.0       -0.0    -0.0    -0.0        0.0        0.0        0.0        0.0
"Line.17-16"         2    60727.3    30782.4        0.0        0.0     0.0     0.0
"Line.19-16"         1   136091.3    56085.3        0.0        0.0     0.0     0.0        0.0        0.0        0.0        0.0
"Line.19-16"         2  -135782.0   -52315.7       -0.0       -0.0    -0.0    -0.0
"Line.21-16"         1    99279.2    18984.5        0.0        0.0     0.0     0.0        0.0        0.0        0.0        0.0
"Line.21-16"         2   -99205.0   -17732.7       -0.0       -0.0    -0.0    -0.0
"Line.24-16"         1    12744.3    39610.5        0.0        0.0     0.0     0.0        0.0        0.0        0.0        0.0
"Line.24-16"         2   -12739.6   -39517.6       -0.0       -0.0    -0.0    -0.0
"Line.18-17"         1   -58592.6   -11857.7       -0.0       -0.0    -0.0    -0.0        0.0        0.0        0.0        0.0
"Line.18-17"         2    58615.7    12127.4        0.0        0.0     0.0     0.0
"Line.27-17"         1    -2078.0   -18224.6       -0.0       -0.0    -0.0    -0.0        0.0        0.0        0.0        0.0
"Line.27-17"         2     2082.0    18278.4        0.0        0.0     0.0     0.0
"Line.22-21"         1   181752.4    58038.5        0.0        0.0     0.0     0.0        0.0        0.0        0.0        0.0
"Line.22-21"         2  -181492.4   -53489.7       -0.0       -0.0    -0.0    -0.0
"Line.23-22"         1   -12421.9   -30769.6       -0.0       -0.0    -0.0    -0.0        0.0        0.0        0.0        0.0
"Line.23-22"         2    12427.8    30864.4        0.0        0.0     0.0     0.0
"Line.24-23"         1  -105338.7   -11945.9       -0.0       -0.0    -0.0    -0.0        0.0        0.0        0.0        0.0
"Line.24-23"         2   105563.5    15521.7        0.0        0.0     0.0     0.0
"Line.26-25"         1   -23899.3   -23104.5       -0.0       -0.0    -0.0    -0.0        0.0        0.0        0.0        0.0
"Line.26-25"         2    23931.8    23433.0        0.0        0.0     0.0     0.0
"Line.27-26"         1   -82235.1    -4428.7       -0.0       -0.0    -0.0    -0.0        0.0        0.0        0.0        0.0
"Line.27-26"         2    82322.8     5349.6        0.0        0.0     0.0     0.0
"Line.28-26"         1    42645.3    -6385.5        0.0       -0.0     0.0    -0.0        0.0        0.0        0.0        0.0
"Line.28-26"         2   -42571.5     7198.8       -0.0        0.0    -0.0     0.0
"Line.29-26"         1    57734.2    -3532.3        0.0       -0.0     0.0     0.0        0.0        0.0        0.0        0.0
"Line.29-26"         2   -57558.8     5455.4       -0.0        0.0    -0.0     0.0
"Line.29-28"         1   104597.0     3416.7        0.0        0.0     0.0     0.0        0.0        0.0        0.0        0.0
"Line.29-28"         2  -104456.0    -1895.7       -0.0       -0.0    -0.0    -0.0
"Transformer.12-11"  1     -506.5   -12186.5       -0.0       -0.0     0.0    -0.0        0.0        0.0        0.0        0.0
"Transformer.12-11"  2      511.6    12247.6        0.0        0.0    -0.0     0.0
"Transformer.12-13"  1    -2043.8   -14216.2       -0.0       -0.0    -0.0    -0.0        0.0        0.0        0.0        0.0
"Transformer.12-13"  2     2050.8    14300.9        0.0        0.0     0.0     0.0
"Transformer.6-31"   1  -166032.4   -49048.7       -0.0       -0.0    -0.0    -0.0  -171604.9   -50832.1   -52809.8   -15643.1
"Transformer.6-31"   2   166676.2    57096.5        0.0        0.0     0.0     0.0
"Transformer.10-32"  1  -194173.2   -45985.0       -0.0       -0.0    -0.0    -0.0  -249552.2   -59089.2  -128512.3   -30429.3
"Transformer.10-32"  2   195021.7    54470.8        0.0        0.0     0.0     0.0
"Transformer.19-33"  1  -188648.5   -14832.5       -0.0       -0.0    -0.0    -0.0  -217476.4   -17083.3   -90825.2    -7134.5
"Transformer.19-33"  2   189636.1    20026.7        0.0        0.0     0.0     0.0
"Transformer.20-34"  1  -151598.1   -72775.7       -0.0       -0.0    -0.0    -0.0  -156242.9   -75001.6   -47729.8   -22911.8
"Transformer.20-34"  2   152427.9    77926.3        0.0        0.0     0.0     0.0
"Transformer.22-35"  1  -194180.2   -88902.9       -0.0       -0.0    -0.0    -0.0  -264764.2  -121217.9  -149275.4   -68343.3
"Transformer.22-35"  2   195035.6    95019.1        0.0        0.0     0.0     0.0
"Transformer.23-36"  1  -167404.2   -10136.1       -0.0       -0.0    -0.0    -0.0  -154318.5    -9333.3   -27876.5    -1686.0
"Transformer.23-36"  2   168035.3    17001.9        0.0        0.0     0.0     0.0
"Transformer.25-37"  1  -161382.9    10188.1       -0.0        0.0    -0.0     0.0  -138117.8     8734.5   -12343.4      780.6
"Transformer.25-37"  2   162030.5    -4409.4        0.0       -0.0     0.0     0.0
"Transformer.2-30"   1   -74617.3  -122348.0       -0.0       -0.0    -0.0    -0.0   -43476.2   -71288.1        0.0        0.0
"Transformer.2-30"   2    75009.1   125893.9        0.0        0.0     0.0     0.0
"Transformer.29-38"  1  -247396.5    -7955.5       -0.0       -0.0    -0.0    -0.0  -397988.2   -12770.6  -272921.8    -8757.5
"Transformer.29-38"  2   249054.0    17190.7        0.0        0.0     0.0     0.0
"Transformer.19-20"  1    52557.1   -41252.8        0.0       -0.0     0.0    -0.0        0.0        0.0        0.0        0.0
"Transformer.19-20"  2   -52436.3    41870.5       -0.0        0.0    -0.0     0.0
"Load.B3"            1    96606.3      722.5        0.0        0.0     0.0     0.0
"Load.B4"            1   150006.9    55205.7        0.0        0.0     0.0     0.0
"Load.B7"            1    70142.7    25202.1        0.0        0.0     0.0     0.0
"Load.B8"            1   156606.3    52804.6        0.0        0.0     0.0     0.0
"Load.B12"           1     2549.6    26401.3        0.0        0.0     0.0     0.0
"Load.B15"           1    96005.2    45905.7        0.0        0.0     0.0     0.0
"Load.B16"           1    98706.9     9693.7        0.0        0.0     0.0     0.0
"Load.B18"           1    47403.0     9001.9        0.0        0.0     0.0     0.0
"Load.B20"           1   204016.0    30909.9        0.0        0.0     0.0     0.0
"Load.B21"           1    82205.1    34505.5        0.0        0.0     0.0     0.0
"Load.B23"           1    74254.9    25385.0        0.0        0.0     0.0     0.0
"Load.B24"           1    92587.8   -27659.1        0.0       -0.0     0.0    -0.0
"Load.B25"           1    67204.6    14163.1        0.0        0.0     0.0     0.0
"Load.B26"           1    41703.0     5101.8        0.0        0.0     0.0     0.0
"Load.B27"           1    84305.6    22654.3        0.0        0.0     0.0     0.0
"Load.B28"           1    61804.8     8283.2        0.0        0.0     0.0     0.0
"Load.B29"           1    85056.9     8074.5        0.0        0.0     0.0     0.0
"Load.B31"           1     2760.0     1380.0        0.0        0.0     0.0     0.0
"Load.B39"           1   331219.3    75011.9        0.0        0.0     0.0     0.0
"Generator.B30"      1   -75001.7  -125893.1       -0.0       -0.0    -0.0    -0.0
"Generator.B32"      1  -195009.2   -54469.8       -0.0       -0.0    -0.0    -0.0
"Generator.B33"      1  -189615.5   -20025.9       -0.0       -0.0    -0.0    -0.0
"Generator.B34"      1  -152410.5   -77925.0       -0.0       -0.0    -0.0    -0.0
"Generator.B35"      1  -195012.3   -95019.0       -0.0       -0.0    -0.0    -0.0
"Generator.B36"      1  -168013.7   -17002.7       -0.0       -0.0    -0.0    -0.0
"Generator.B37"      1  -162013.2     4410.2       -0.0        0.0    -0.0    -0.0
"Generator.B38"      1  -249022.1   -17191.9       -0.0       -0.0    -0.0    -0.0
"Generator.B39"      1  -300017.9   -52081.8       -0.0       -0.0    -0.0    -0.0

Total Circuit Losses = 31298.6 +j 272816.1
