dataConverter/IEEE_39_VLN.Txt

SYMMETRICAL COMPONENT VOLTAGES BY BUS (for 3-phase buses)

Bus   Mag:   V1 (kV)    p.u.     V2 (kV)   %V2/V1    V0 (kV)    %V0/V1

b31      12.47      0.982  6.095E-009  4.887E-008 8.114E-010 6.505E-009
b2         209      1.049  1.024E-007  4.898E-008 1.406E-008 6.727E-009
b1       206.6      1.037  1.012E-007  4.898E-008 1.356E-008 6.565E-009
b39      205.2       1.03  1.005E-007  4.897E-008 1.328E-008 6.475E-009
b3       207.5      1.042  1.016E-007  4.898E-008 1.375E-008 6.625E-009
b25      209.2       1.05  1.025E-007  4.899E-008 1.41E-008 6.743E-009
b4       205.6      1.032  1.007E-007  4.896E-008 1.337E-008 6.502E-009
b18      207.6      1.042  1.017E-007  4.899E-008 1.377E-008 6.632E-009
b5       205.5      1.032  1.006E-007  4.895E-008 1.334E-008 6.492E-009
b14      206.2      1.035  1.01E-007  4.896E-008 1.348E-008 6.539E-009
b6       205.7      1.032  1.007E-007  4.894E-008 1.338E-008 6.504E-009
b8       204.6      1.027  1.001E-007  4.895E-008 1.317E-008 6.438E-009
b7       204.8      1.028  1.002E-007  4.895E-008 1.32E-008 6.448E-009
b11      206.1      1.035  1.009E-007  4.895E-008 1.347E-008 6.536E-009
b9       204.9      1.029  1.003E-007  4.896E-008 1.324E-008 6.46E-009
b10      206.5      1.037  1.011E-007  4.895E-008 1.354E-008 6.56E-009
b13      206.3      1.036  1.01E-007  4.896E-008 1.35E-008 6.546E-009
b15      207.1       1.04  1.014E-007  4.898E-008 1.366E-008 6.598E-009
b16      208.5      1.047  1.021E-007  4.899E-008 1.395E-008 6.69E-009
b17      207.9      1.044  1.018E-007  4.899E-008 1.382E-008 6.649E-009
b19      210.9      1.059  1.033E-007   4.9E-008 1.447E-008 6.862E-009
b21      209.1       1.05  1.024E-007   4.9E-008 1.409E-008 6.737E-009
b24      208.9      1.049  1.024E-007  4.899E-008 1.404E-008 6.719E-009
b27      207.3      1.041  1.015E-007  4.899E-008 1.37E-008 6.609E-009
b22      210.8      1.058  1.033E-007  4.901E-008 1.45E-008 6.876E-009
b23      210.3      1.056  1.03E-007  4.901E-008 1.438E-008 6.839E-009
b26      207.6      1.042  1.017E-007   4.9E-008 1.378E-008 6.636E-009
b28      207.3      1.041  1.016E-007  4.901E-008 1.376E-008 6.637E-009
b29      207.7      1.043  1.018E-007  4.901E-008 1.388E-008 6.685E-009
b12      65.78      1.036  3.22E-008  4.895E-008 4.303E-009 6.541E-009
b32      12.49      0.983  6.112E-009  4.895E-008 8.201E-010 6.568E-009
b33      12.66      0.997  6.206E-009  4.901E-008 8.702E-010 6.871E-009
b20       63.7      1.003  3.121E-008  4.899E-008 4.369E-009 6.858E-009
b34      12.85      1.012  6.299E-009   4.9E-008 8.824E-010 6.865E-009
b35      13.32      1.049  6.531E-009  4.901E-008 9.176E-010 6.887E-009
b36       13.5      1.063  6.619E-009  4.902E-008 9.263E-010 6.86E-009
b37      13.05      1.027  6.391E-009  4.899E-008 8.808E-010 6.752E-009
b30       13.3      1.047  6.514E-009  4.898E-008 8.946E-010 6.727E-009
b38      13.03      1.026  6.388E-009  4.902E-008 8.744E-010 6.709E-009
